<?xml version="1.0" encoding="UTF-8"?>

<!-- generated on 2024-05-19 23:35:29 by Eclipse SUMO sumo Version 1.18.0
-->

<configuration xmlns:xsi="http://www.w3.org/2001/XMLSchema-instance" xsi:noNamespaceSchemaLocation="http://sumo.dlr.de/xsd/sumoConfiguration.xsd">

    <input>
        <net-file value="Data/map.net.xml"/>
        <route-files value="setLD.rou.xml,setHD.rou.xml"/>
    </input>

</configuration>
