<?xml version="1.0" encoding="UTF-8"?>

<!-- generated on 2024-08-09 15:09:47 by Eclipse SUMO sumo Version 1.18.0
-->

<configuration xmlns:xsi="http://www.w3.org/2001/XMLSchema-instance" xsi:noNamespaceSchemaLocation="http://sumo.dlr.de/xsd/sumoConfiguration.xsd">

    <input>
        <net-file value="data/map.net.xml"/>
        <route-files value="setHD.rou.xml"/>
    </input>

</configuration>
