<routes xmlns:xsi="http://www.w3.org/2001/XMLSchema-instance" xsi:noNamespaceSchemaLocation="http://sumo.dlr.de/xsd/routes_file.xsd">
    <vehicle id="402" depart="1000.00">
        <route edges="1093310820 1093310822 68089236 -493382979#1 -493382979#0 -4337922#5 -4337922#4 -4337922#3 -4337922#2 -4337922#1 -4337922#0 4336637#0 4336637#1 262527074 262527072 262527077#0 262527077#1 262527077#2 262527127 24306673#0 24306673#1 24306673#2 24306673#3 24306673#4 24306673#5 24306673#6 24306673#7 24306673#8 24306673#9 24306673#10 24306673#11 24306673#12 24306673#13 24306673#14 24306673#15 211145770#0 211145770#1 211145770#2 211145770#3 211145770#4 4442947 70272498 4442945 -4442945 -70272498" />
    </vehicle>
    <vehicle id="403" depart="1001.00">
        <route edges="23173652#2 23173652#3 23173652#4 23173652#5 -4411371 95795946#0 95795946#1 211145735#0 211145735#1 211145735#2 211145735#3 384731320#0 384731320#1 384731320#2 211145793 211145797 4318735#0 4318735#1 4318735#2 4318735#3 4318735#4 4318735#5 4318735#6 4318735#7 4318735#8 666093607 344560895#0 344560895#1 4336697#0 4336697#1 4314115#0 4314115#1 4314115#2 4314115#3 4314115#4 839467316 211145807#0 211145807#1 211145807#2 839467315 4314117 226984578 662387067#0 662387067#1 662387067#2 662387067#3 662387067#4 662387067#5 4352193#0 4352193#1 4352193#2 4352193#3 4352193#4 4442911 211802670 228524702 228524703 70276530#0 70276530#1 -4351958#3 -4351958#2 -4351958#1 -4351958#0 623680404#0 623680404#1 4351759#0 4351759#1 4351759#2 4351759#3 4351759#4 4351759#5 4351759#6 4442935#0 4442935#1 4442935#2 4442935#3 4442935#4 4442935#5 1095912321 35410352 25012929 211145803 4314029 267024775 -19798139#2 -19798139#1" />
    </vehicle>
    <vehicle id="404" depart="1001.00">
        <route edges="262527157 4310994 4310992 854958308 854958305 4310990 145530133 262527133 262527151#0 262527151#1 262527151#2 262527151#3 19741389#0 19741389#1 19741389#2 19741389#3 19741389#4 189407440 211145734#0 211145734#1 211145734#2 208288868#0 208288868#1 208288868#2 208288868#3 1057717252 866980812 95795946#0 95795946#1 24407618#0 24407618#1 211145766 19801116 -246124757#1 -246124757#0 -22922277#2 -22922277#1 -22922277#0 -17429326#5 -17429326#4" />
    </vehicle>
    <vehicle id="405" depart="1001.00">
        <route edges="4295899#2 4295899#3 -4341857#1 -4341857#0 95796694#0 95796694#1 95796694#2 591937203#0 591937203#1 591937203#2 591937203#3 4336694#0 4336694#1 4336694#2 591937201 953108926 591937202 584214658#0 584214658#1 584214658#2 584214658#3 584214658#4 584214658#5 584214658#6 584214658#7 211145769#0 211145769#1 211145769#2 211145769#3 211145769#4 211145769#5 211145769#6 211145769#7 211145769#8 211145769#9 211145769#10 262378279 4336647#0 4336647#1 4336647#2 4336643#3 4336643#4 262527137 476146875 262527157" />
    </vehicle>
    <vehicle id="406" depart="1001.00">
        <route edges="35410191#0 35410191#1 497258456 19731785 1001485298 33735489 4313983 4314026 19798139#0 19798139#1 19798139#2 4314028 35410345 211145801 -35410352 -1095912321 -4442935#5 -4442935#4 -4442935#3 -4442935#2 -4442935#1 -4442935#0 -211145764#8 -211145764#7 -211145764#6 -211145764#5 -211145764#4 -211145764#3 -211145764#2 -211145764#1 -211145764#0 -668848282#1 -668848282#0 211145765 4340810#0 4340810#1 4340810#2 211145721 -4340806#5 -4340806#4 4340821#0 4340821#1 -4341840 4341840" />
    </vehicle>
    <vehicle id="407" depart="1001.00">
        <route edges="4341853#0 4341853#1 4295836#2 4295836#3 4295836#4 4295836#5 1150693726 226982499#3 226982499#4 226982499#5 226982499#6 226982499#7 226982500#0 226982500#1 226982500#2 226982500#3 4314109#0 4314109#1 4314109#2 4314109#3 4314109#4 839467314 4314118#0 4314118#1 839467317 4314112#0" />
    </vehicle>
    <vehicle id="409" depart="1002.00">
        <route edges="-24407771 24407771 24407773 24407755#1 24407755#2 4318735#3 4318735#4 4318735#5 4318735#6 4318735#7 4318735#8 666093607 344560895#0 344560895#1 4336697#0 4336697#1 4314115#0 4314115#1 4314115#2 4314115#3 4314115#4 839467316 211145807#0 211145807#1 211145807#2 839467315 4314117 226984578 662387067#0 662387067#1 662387067#2 662387067#3 662387067#4 662387067#5 4352193#0 4352193#1 4352193#2 4352193#3" />
    </vehicle>
    <vehicle id="410" depart="1005.00">
        <route edges="-70272499#3 -70272499#2 -70272499#1 -70272499#0 -4351684 -4417255#1 -4417255#0 4314112#1 4314112#2 344560901#0 344560901#1 344560901#2 4336699#0 4336699#1 666094771#0 666094771#1 4318736#0 4318736#1 4318736#2 4318736#3 4318736#4 4318736#5 4318736#6 4318736#7 4318736#8 4318736#9 4318736#10 211145799 211145789 211145796 224293184 384731321#0 384731321#1 4411369#0 4411369#1 4411369#2 4411369#3 4411369#4 4411369#5 4411369#6 4411369#7 -4411371 95795946#0 95795946#1 24407618#0 24407618#1 -132301406#1 -132301406#0 132301406#0 132301406#1" />
    </vehicle>
    <vehicle id="411" depart="1005.00">
        <route edges="-73064427 73064427 35411025#1 35411026#0 35411026#1 -35410944 -510253470 35411052#0 35411052#1 35411052#2 35411056 65017498 262527130#0 262527130#1 262527130#2 4336693 262527120 262527127 24306673#0 24306673#1 24306673#2 24306673#3 24306673#4 24306673#5 24306673#6 24306673#7 24306673#8 24306673#9 24306673#10 24306673#11 24306673#12 24306673#13 24306673#14 24306673#15 211145770#0 211145770#1 211145770#2 211145770#3 211145770#4 211145770#5 584214657#0 584214657#1 584214657#2 591937204#0 591937204#1 591937204#2 953108927#0 953108927#1 953104639#0 953104639#1 4314133#0 4314133#1 -953106575#1 -953106575#0 1235184011#0 1235184011#1 211448545#0 211448545#1 211448545#2 -4314149#1 -4314149#0 -1060287927 -19998554#1 -19998554#0 8052420#0 8052420#1 24700612#0 24700612#1 -24700612#1" />
    </vehicle>
    <vehicle id="412" depart="1006.00">
        <route edges="10791017#0 10791108#2 10791108#3 -4337922#3 -4337922#2 -4337922#1 -4337922#0 4336637#0 4336637#1 262527074 262527072 262527077#0 262527077#1 262527077#2 4336644 4336643#0 4336643#1 4336643#2 4336643#3 4336643#4 262527137 476146875 262527157 4310994 4310992 854958308 854958305 4310990 145530133 262527133 262527151#0 262527151#1 262527151#2 262527151#3 19741389#0 19741389#1 19741389#2 19741389#3 19741389#4 189407440 211145734#0 211145734#1 211145734#2 208288868#0 17427733 -40918901#1 -40918901#0 -208288900#2 -208288900#1 -714488207#0 27470037 -27470037 714488207#0" />
    </vehicle>
    <vehicle id="415" depart="1008.00">
        <route edges="787364829 22947407 513872482 787364830 4316967 4316970 4316974 -4316968#2 -4316968#1 -4316968#0 20464508#1 20464508#2 20464508#3 1228871560#0 1228871560#1 1228871560#2 1228871560#3 1228871560#4 1228871560#5 1228871560#6 1228871560#7 1228871560#8 33734750 33735489 4313983 4314026 19798139#0 19798139#1 19798139#2 4314028 35410345 211145801 25012929 1228871559#0 70002697#0 70002697#1 70002697#2 228530562#0 228530562#1 228530562#2 228530560#3 228530560#4 35410683#0 35410683#1 35410704#0 35410704#1 267024772#0 267024772#1 267024772#2 228528611 228527262 4351958#0 4351958#1 4351958#2 4351958#3 -35410844#3 -35410844#2 27286076 -27286218 554842245 4447910#2 4447910#3 4447910#4 4447910#5" />
    </vehicle>
    <vehicle id="416" depart="1010.00">
        <route edges="276480153 276480156 81399572#0 81399572#1 81399572#2 81399572#3 276435239 276435238 276435240 866965845#0 866965845#1 866965845#2 1201999930 4336629#0 4336629#1 211802722#0 211802722#1 81399571 866965847 4336631#0 4336631#1 276159017 -276159021 -1133065900 -276159015 -276159018 -276159016 -276159023#2 -276159023#1 -276159023#0 -4336633#1 -4336633#0 -493382979#1 -493382979#0 -4337922#5 -4337922#4 -4337922#3 -4337922#2 -4337922#1 -4337922#0 4336637#0 4336637#1 262527074 262527072 262527077#0 262527077#1 262527077#2 4336644 262527125 262527123 189407444#0 189407444#1 189407444#2 35411066 35411073#0 -985594163 -10665896#4 10665896#4" />
    </vehicle>
    <vehicle id="417" depart="1011.00">
        <route edges="95796694#2 591937203#0 591937203#1 591937203#2 591937203#3 4336694#0 4336694#1 4336694#2 591937201 953108926 591937202 584214658#0 584214658#1 584214658#2 584214658#3 584214658#4 584214658#5 584214658#6 666094771#0 666094771#1 4318736#0 4318736#1 4318736#2 4318736#3 4318736#4 4318736#5 4318736#6 4318736#7 4318736#8 4318736#9 4318736#10 211145799 211145789 211145796 224293184 384731321#0 384731321#1 4411369#0 4411369#1 4411369#2 4411369#3 4411369#4 4411369#5 4411369#6 4411369#7 -4411371 95795946#0 95795946#1 24407618#0 24407618#1 211145766 -17435976 24407617" />
    </vehicle>
    <vehicle id="418" depart="1011.00">
        <route edges="-22911548#7 -22911548#6 -22911548#5 -22911548#4 -22911548#3 -22911548#2 -22911548#1 -22911548#0 -22911547 22911547 22911548#0 22911548#1 22911548#2 22911548#3 22911548#4 22911548#5 22911548#6 22911548#7 211145769#10 262378279 262378278#0 262378278#1 24306669 262527125 4336645 262527120 262527127 24306673#0 24306673#1 24306673#2 24306673#3 24306673#4 27286074#0 27286074#1 -27286074#1" />
    </vehicle>
    <vehicle id="419" depart="1012.00">
        <route edges="226984578 662387067#0 226982517 4314109#3 4314109#4 839467314 4314118#0 4314118#1 839467317 4314112#0 4314112#1 4314112#2 344560901#0 344560901#1 344560901#2 211145770#0 211145770#1 211145770#2 211145770#3 211145770#4 211145770#5 584214657#0 584214657#1 584214657#2 591937204#0 591937204#1 591937204#2 953108927#0 953108927#1 937258443#0 937258443#1 4295899#0 4295899#1 4295899#2 4295899#3 -4341857#1 -4341857#0 95796694#0 95796694#1" />
    </vehicle>
    <vehicle id="421" depart="1013.00">
        <route edges="24306673#2 24306673#3 24306673#4 24306673#5 24306673#6 24306673#7 24306673#8 24306673#9 24306673#10 4336695 818297686 211145769#3 211145769#4 211145769#5 211145769#6 211145769#7 211145769#8 211145769#9 211145769#10 262378279 262378278#0 262378278#1 24306669 262527125 4336645 4336636#0 4336636#1 4336636#2 4336636#3 262527075#0 262527075#1 4337922#0 4337922#1 4337922#2 4337922#3 -10791108#3 -10791108#2 -10791108#1 -527002699#0 22922143#5" />
    </vehicle>
    <vehicle id="422" depart="1014.00">
        <route edges="262527151#0 262527151#1 262527151#2 262527151#3 86892435 19741390 86892441 61917844#0 61917844#1 262527144 262527159 4310989 4310991 854958306 854958307 4310993 145530129 262527150 262527162#0 262527162#1 262527162#2 262527135 262527140 262527154#0 262527154#1 262527154#2 4336645 262527120 262527127 24306673#0 24306673#1 24306673#2 24306673#3 24306673#4 24306673#5 24306673#6 24306673#7 24306673#8 24306673#9 24306673#10 24306673#11 24306673#12 24306673#13 24306673#14 4314115#0 4314115#1 4314115#2 4314115#3 4314115#4 839467316 211145807#0 211145807#1 211145807#2 839467315 4314117 226984578 662387067#0 662387067#1 662387067#2 662387067#3 662387067#4 662387067#5 4314052#0 4314052#1 4314052#2 4314080 4314076#0 4314076#1 4314076#2 4314076#3 4314076#4 1150693728 4340830#0 4340830#1 4340830#2 4340830#3 4340830#4 4340830#5 -4340830#5 -4340830#4" />
    </vehicle>
    <vehicle id="424" depart="1016.00">
        <route edges="19798139#1 19798139#2 4314028 35410345 211145801 25012929 1228871559#0 70002697#0 70002697#1 70002697#2 228530562#0 228530562#1 228530562#2 228530560#3 228530560#4 35410683#0 35410683#1 35410704#0 35410704#1 267024772#0 267024772#1 267024772#2 228528611 228527262 4352215#0 4352215#1 228524704 180794611#0 180794611#1 180794611#2 226985470 226985471#0 226985471#1 226985471#2 226985471#3 4314080 4314050#0 4314050#1 4314050#2 4314109#0 4314109#1 4314109#2 4314109#3 4314109#4 839467314 4314118#0 4314118#1 839467317 4314112#0 4314112#1 4314112#2 344560901#0 344560901#1 344560901#2 4336699#0 4336699#1 666094771#0 666094771#1 4318736#0 4318736#1 4318736#2 4318736#3 4318736#4 4318736#5 4318736#6 4318736#7 4318736#8 4318736#9 4318736#10 211145799 211145789 211145796 224293184 384731321#0 384731321#1 4411369#0 4411369#1 4411369#2 4411369#3 4411369#4 4411369#5 4411369#6 4411369#7 -23173652#5 -23173652#4 -23173652#3 -23173652#2 -23173652#1 -23173652#0 -19801117#1 -19801117#0 -785353662#1 -785353662#0 -35412963#2 -35412963#1 -35412963#0 -128813905#7 -128813905#6 -128813905#5 -128813905#4 -128813905#3 -128813905#2 -128813905#1 -132301385#1 -132301385#0" />
    </vehicle>
    <vehicle id="426" depart="1017.00">
        <route edges="262527074 262527072 262527077#0 262527077#1 262527077#2 4336644 262527125 4336645 4336636#0 4336636#1 4336636#2 4336636#3 262527075#0 262527075#1 4337922#0 4337922#1 4337922#2 4337922#3 4337922#4 4337922#5 493382979#0 493382979#1 4336633#0 4336633#1 276159023#0 276159023#1 276159023#2 276159016 276159018 8103661#0 8103661#1 8103657#0 -23189053#1" />
    </vehicle>
    <vehicle id="427" depart="1017.00">
        <route edges="24700612#1 -24700612#1 -24700612#0 -8052420#1 -8052420#0 19998554#0 19998554#1 1060287927 4314149#0 4314149#1 -211448545#2 -211448545#1 -211448545#0 -1235184011#1 -1235184011#0 953106575#0 953106575#1 953104640#0 953104640#1 4336694#0 4336694#1 4336694#2 591937201 953108926 591937202 584214658#0 584214658#1 584214658#2 584214658#3 584214658#4 584214658#5 584214658#6 584214658#7 211145769#0 211145769#1 211145769#2 211145769#3 211145769#4 211145769#5 211145769#6 211145769#7 211145769#8 211145769#9 211145769#10 262378279 4336647#0 4336647#1 4336647#2 4336643#3 4336643#4 262527137 476146875 262527157 4310994 4310992 854958308 854958305 4310990 145530133 262527133 262527151#0 262527151#1 262527151#2 262527151#3 86892435 19741390 86892441 61917844#0 61917844#1 262527144 262527159" />
    </vehicle>
    <vehicle id="429" depart="1018.00">
        <route edges="17435976 19801116 22922297 22922283#0 22922283#1 22922283#2 95796075#0 95796075#1 95796075#2 95796075#3 95796075#4" />
    </vehicle>
    <vehicle id="431" depart="1020.00">
        <route edges="-584214655 -963237717#1 -963237717#0 -963237716#2 -963237716#1 -963237716#0 4314121 591937204#1 591937204#2 953108927#0 953108927#1 953104639#0 953104639#1 591937203#3 4336694#0 4336694#1 4336694#2 591937201 953108926 591937202 584214658#0 584214658#1 584214658#2 584214658#3 584214658#4 584214658#5 584214658#6 584214658#7 211145769#0 211145769#1 211145769#2 211145769#3 211145769#4 211145769#5 211145769#6 211145769#7 211145769#8 211145769#9 211145769#10 262378279 262378278#0 262378278#1 24306669 262527125 4336645 4336636#0 4336636#1 4336636#2 4336636#3 262527075#0 262527075#1 4337922#0 4337922#1 4337922#2 4337922#3 4337922#4 4337922#5 493382979#0 493382979#1 4336633#0 4336633#1 276159023#0 276159023#1 276159023#2 276159016 276159018 276159015 1133065900 276159021 4336630 276159020 -1133065901 -23189053#5 -23189053#4" />
    </vehicle>
    <vehicle id="432" depart="1020.00">
        <route edges="584214658#3 584214658#4 584214658#5 584214658#6 666094771#0 666094771#1 4318736#0 4318736#1 4318736#2 4318736#3 4318736#4 4318736#5 4318736#6 4318736#7 4318736#8 4318736#9 4318736#10 211145799 211145789 211145796 224293184 384731321#0 384731321#1 4411369#0 4411369#1 4411369#2 4411369#3 4411369#4 4411369#5 4411369#6" />
    </vehicle>
    <vehicle id="433" depart="1020.00">
        <route edges="-8103656 -8103657#1 -8103657#0 -8103661#1 -8103661#0 -276159018 -276159016 -276159023#2 -276159023#1 -276159023#0 -4336633#1 -4336633#0 -493382979#1 -493382979#0 -4337922#5 -4337922#4 -4337922#3 -4337922#2 -4337922#1 -4337922#0 4336637#0 4336637#1 262527074 262527072 262527077#0 262527077#1 262527077#2 4336644 4336643#0 4336643#1 4336643#2 4336643#3 4336643#4 262527137 476146875 262527157 4310994 4310992 854958308 854958305 4310990 145530133 262527133 262527151#0 262527151#1 262527151#2 262527151#3 86892435 19741390 86892441 61917844#0 61917844#1 262527144 262527159 4310989 4310991" />
    </vehicle>
    <vehicle id="434" depart="1020.00">
        <route edges="-276159023#2 -276159023#1 -276159023#0 -4336633#1 -4336633#0 -493382979#1 -493382979#0 -4337922#5 -4337922#4 -4337922#3 -4337922#2 -4337922#1 -4337922#0 4336637#0 4336637#1 262527074 262527072 262527077#0 262527077#1 262527077#2 262527127 24306673#0 24306673#1 24306673#2 24306673#3 24306673#4 24306673#5 24306673#6 24306673#7 24306673#8 24306673#9 24306673#10 24306673#11 24306673#12 24306673#13 24306673#14 24306673#15 4336699#0 4336699#1 666094771#0 666094771#1 4318736#0 4318736#1 4318736#2 4318736#3 4318736#4 4318736#5 4318736#6 4318736#7 4318736#8 4318736#9 4318736#10 211145799 211145789 211145796 224293184 384731321#0 384731321#1 4411369#0 4411369#1 4411369#2 4411369#3 4411369#4 4411369#5 4411369#6 4411369#7 -23173652#5 -23173652#4 -23173652#3 -23173652#2 -23173652#1 -23173652#0 -19801117#1 -19801117#0 -785353662#1 -785353662#0 -35412963#2 -35412963#1 -35412963#0 5116267 711999163" />
    </vehicle>
    <vehicle id="435" depart="1021.00">
        <route edges="-24407771 24407771 24407773 24407755#1 24407755#2 4318735#3 4318735#4 4318735#5 4318735#6 4318735#7 4318735#8 666093607 344560895#0 344560895#1 4336697#0 4336697#1 4314115#0 4314115#1 4314115#2 4314115#3 4314115#4 839467316 211145807#0 211145807#1 211145807#2 839467315 4314117 226984578 662387067#0 662387067#1 662387067#2 662387067#3 662387067#4 662387067#5 4352193#0 4352193#1 4352193#2 4352193#3 4352193#4 4442911 211802670 228524702 228524703 70276530#0 70276530#1 -4351958#3 -4351958#2 -4351958#1 -4351958#0 4352215#0 4352215#1 228524704 180794611#0 180794611#1 180794611#2 226985470" />
    </vehicle>
    <vehicle id="437" depart="1023.00">
        <route edges="-4351684 4351684 70272499#0 70272499#1 70272499#2 70272499#3 70272499#4 4314118#1 211145795 211145807#0 211145807#1 211145807#2 839467315 4314117 226984578 662387067#0 662387067#1 662387067#2 662387067#3 662387067#4 662387067#5 4352193#0 4352193#1 4352193#2 4352193#3 4352193#4 4442911 211802670 228524702 228524703 70276530#0 70276530#1 4351954 267024771 228528609#0 228528609#1 228528609#2 228528609#3 267024773#0 267024773#1 267024773#2 228529698 1202017343 228530561#0 228530561#1 808318543 70287708 81399573#0 81399573#1 211802724#0 211802724#1 1202017344 808318544#0 808318544#1 1201999931 1133065906 4447952 -4314033#3 -27303867 228532075" />
    </vehicle>
    <vehicle id="438" depart="1024.00">
        <route edges="67068781 268951332 262527150 262527162#0 262527162#1 262527162#2 262527135 262527140 262527154#0 262527154#1 262527154#2 4336645 4336636#0 4336636#1 4336636#2 4336636#3 262527075#0 262527075#1 4337922#0 4337922#1 4337922#2 4337922#3 4337922#4 4337922#5 493382979#0 493382979#1 1113336280 24841523#0 24841523#1 24841523#2 24841523#3 -267024777 -510253483 -35410727 -4416645#1 -4416645#0 -1150693747 228528609#3 267024773#0 267024773#1 267024773#2 -4314035#3 -4314035#2 -4314035#1 -4314035#0 228530560#3 228530560#4 35410683#0 35410683#1 35410704#0 35410704#1 267024772#0 267024772#1 267024772#2 228528611 228527262" />
    </vehicle>
    <vehicle id="439" depart="1024.00">
        <route edges="95796694#2 591937203#0 591937203#1 591937203#2 591937203#3 4336694#0 4336694#1 4336694#2 591937201 953108926 591937202 584214658#0 584214658#1 584214658#2 584214658#3 584214658#4 584214658#5 584214658#6 584214658#7 4336697#0 4336697#1 4314115#0 4314115#1 4314115#2 4314115#3 4314115#4 839467316 211145807#0 211145807#1 211145807#2 839467315 4314117 226984578 662387067#0 662387067#1 662387067#2 662387067#3 662387067#4 662387067#5 4314052#0 4314052#1 4314052#2 4340805#0 4340805#1 4340805#2 4340805#3 4340805#4 668880993#0 668880993#1 668880993#2 667942961#0 667942961#1 667942961#2 211145733 667940100 1116496225 1116496226#0 4351733#0" />
    </vehicle>
    <vehicle id="440" depart="1025.00">
        <route edges="262527072 262527077#0 262527077#1 262527077#2 4336644 262527125 4336645 4336636#0 4336636#1 4336636#2 4336636#3 262527075#0 262527075#1 4337922#0 4337922#1 4337922#2 4337922#3 -10791108#3 -10791108#2 -10791108#1 -527002699#0" />
    </vehicle>
    <vehicle id="441" depart="1025.00">
        <route edges="226982500#0 226982500#1 226982500#2 226982500#3 4314109#0 4314109#1 4314109#2 4314109#3 4314109#4 839467314 4314118#0 4314118#1 839467317 4314112#0 4314112#1 4314112#2 344560901#0 344560901#1 344560901#2 211145770#0 211145770#1 211145770#2 211145770#3 211145770#4 211145770#5 584214657#0 584214657#1 584214657#2 591937204#0 591937204#1 591937204#2 953108927#0 953108927#1 953104639#0 953104639#1 4314133#0 4314133#1 -953106575#1 -953106575#0 1235184011#0 1235184011#1 211448545#0 211448545#1 211448545#2 -4314149#1 -4314149#0 4353910#0 4353910#1 4353910#2 4353910#3 4353910#4 4353910#5 943052440#0 943052440#1 943052440#2" />
    </vehicle>
    <vehicle id="442" depart="1027.00">
        <route edges="145530129 262527150 262527162#0 262527162#1 262527162#2 262527135 262527140 262527154#0 262527154#1 262527154#2 4336645 262527120 4336644 4336643#0 4336643#1 4336643#2 4336643#3 4336643#4 262527137 476146875 262527157 4310994 4310992 854958308 854958305 4310990 145530133 262527133 262527151#0 262527151#1 262527151#2 262527151#3 86892435 19741390 86892441 61917844#0 61917844#1 262527144 262527159 4310989 4310991 854958306 854958307" />
    </vehicle>
    <vehicle id="443" depart="1028.00">
        <route edges="33882016#1 33882016#2 26317801#0 26317801#1 26317801#2 956580575 -956580576 -27301119 24311457#0 24311457#1 24311457#2 27286581 24311497#2 -24311527 24311527" />
    </vehicle>
    <vehicle id="444" depart="1028.00">
        <route edges="81399581#3 81399581#4 -1215639894#1 -1215639894#0 -211802781#2 -211802781#1 -211802781#0 -1215639886#1 -1215639886#0 978414847 1133065909 4351957#0 4351957#1 4351957#2 285127618#0 285127618#1 285127618#2 1202017344 808318544#0 808318544#1 1201999931 1133065906 4447952 -41421260#3 -41421260#2 24311482 -24311482" />
    </vehicle>
    <vehicle id="445" depart="1029.00">
        <route edges="35410727 510253483 267024777 -24841523#3 -24841523#2 -24841523#1 -24841523#0 -1113336280 -493382979#1 -493382979#0 -4337922#5 -4337922#4 -4337922#3 -4337922#2 -4337922#1 -4337922#0 4336637#0 4336637#1 262527074 262527072 262527077#0 262527077#1 262527077#2 4336644 4336643#0 4336643#1 4336643#2 4336643#3 4336643#4 262527137 476146875 4311000" />
    </vehicle>
    <vehicle id="446" depart="1029.00">
        <route edges="-27286119 -27286106#4 -27286106#3 -27286106#2 -27286106#1 -27286106#0 24841523#3 35410844#0 35410844#1 35410844#2 35410844#3 -4351958#3 -4351958#2 -4351958#1 -4351958#0 623680404#0 623680404#1 4351759#0 4351759#1 4351759#2 4351759#3 4351759#4 4351759#5 4351759#6 4442935#0 4442935#1 4442935#2 4442935#3 4442935#4 4442935#5 1095912321 35410352 25012929 211145803 4314029 267024775 -19798139#2 -19798139#1 -19798139#0 -4314026 -4313983 -33735489 -33734750 35410178 -27286608 23128730 497258456" />
    </vehicle>
    <vehicle id="447" depart="1029.00">
        <route edges="35410727 510253483 267024777 -24841523#3 -24841523#2 -24841523#1 -24841523#0 -1113336280 -493382979#1 -493382979#0 -4337922#5 -4337922#4 -4337922#3 -4337922#2 -4337922#1 -4337922#0 4336637#0 4336637#1 262527074 262527072 262527077#0 262527077#1 262527077#2 4336644 262527125 262527123 189407444#0 189407444#1 189407444#2 35411066" />
    </vehicle>
    <vehicle id="449" depart="1031.00">
        <route edges="24311527 -24311497#2 -27286581 24311457#3 -8384193 4314033#1 4314033#2 4314033#3 4447953 1133065908 228530560#1 228530560#2 228530560#3 228530560#4 35410683#0 35410683#1 35410704#0 35410704#1 267024772#0 267024772#1 267024772#2 228528611 228527262 4352215#0 4352215#1 228524704 180794611#0 180794611#1 180794611#2 226985470 226985471#0 226985471#1 226985471#2 226985471#3 4314080 4314050#0 4314050#1 4314050#2 4314109#0 4314109#1 4314109#2 4314109#3 4314109#4 839467314 4314118#0 4314118#1 839467317 4314112#0 4314112#1 4314112#2 344560901#0 344560901#1 344560901#2 211145770#0 211145770#1 211145770#2 211145770#3 211145770#4 211145770#5 584214657#0 584214657#1 584214657#2 591937204#0 591937204#1 591937204#2 953108927#0 953108927#1 937258443#0 937258443#1 4295899#0 4295899#1 4295899#2 4295899#3 -4341857#1 -4341857#0 95796694#0 95796694#1 95796694#2" />
    </vehicle>
    <vehicle id="450" depart="1032.00">
        <route edges="-507005771#2 -507005771#1 -507005771#0 507005771#0 507005771#1 507005771#2 507005771#3 507005771#4 4340778#0 4340778#1 4340806#0 4340806#1 4340806#2 4340806#3 4340806#4 4340806#5 211145720 668847093#0 668847093#1 668849026 668849024 668849025#0 668849025#1 668851144 211802686#0 211802686#1 211802686#2 211802686#3 211802686#4 4314050#0 4314050#1 4314050#2 4314109#0 4314109#1 4314109#2 4314109#3 4314109#4 839467314 4314118#0 4314118#1 839467317 4314112#0 4314112#1 4314112#2 344560901#0 344560901#1 344560901#2 4336699#0 4336699#1 584214658#7 211145769#0 211145769#1 211145769#2 211145769#3 211145769#4 211145769#5 211145769#6 211145769#7 211145769#8 211145769#9 211145769#10 262378279 262378278#0 262378278#1 24306669 262527125 262527123 189407444#0 189407444#1 189407444#2 35411066 35411073#0 -985594163 -10665896#4 -10665896#3 -10665896#2 10666168" />
    </vehicle>
    <vehicle id="451" depart="1033.00">
        <route edges="4351750#0 4351750#1 4351750#2 64378203#0 64378203#1 -64378203#1 -64378203#0 -4351750#2 -4351750#1 -4351750#0 -449919294 -449919292 211145764#2 211145764#3 211145764#4 211145764#5 211145764#6 211145764#7 211145764#8 4442935#0 4442935#1 4442935#2 4442935#3 4442935#4 4442935#5 1095912321 35410352 25012929 211145803 4314029 267024775 -19798139#2 -19798139#1 -19798139#0 -4314026 -4313983 -33735489 -33734750 -1228871560#8 -1228871560#7 -1228871560#6 -1228871560#5 -1228871560#4 -1228871560#3 -1228871560#2 -1228871560#1 -1228871560#0 -20464508#3 -20464508#2 -20464508#1 4316968#0 4316968#1 4316968#2 4316968#3 4316965#1" />
    </vehicle>
    <vehicle id="453" depart="1034.00">
        <route edges="-27286106#6 -27286115 -27286074#0 24306673#5 24306673#6 24306673#7 24306673#8 24306673#9 24306673#10 24306673#11 24306673#12 24306673#13 24306673#14 4314115#0 4314115#1 4314115#2 4447933#0 4447933#1 -26956492#2 -26956492#1" />
    </vehicle>
    <vehicle id="454" depart="1035.00">
        <route edges="388285956 -8103661#1 -8103661#0 -276159018 -276159016 -276159023#2 -276159023#1 -276159023#0 -4336633#1 -4336633#0 -493382979#1 -493382979#0 -4337922#5 -4337922#4 -4337922#3 -4337922#2 -4337922#1 -4337922#0 4336637#0 4336637#1 262527074 262527072 262527077#0 262527077#1 262527077#2 4336644 262527125 262527123 189407444#0 189407444#1 189407444#2 35411066 35411073#0 -985594163 -10665896#4 -10665896#3 -10665896#2 -10665896#1 10666062" />
    </vehicle>
    <vehicle id="455" depart="1036.00">
        <route edges="23173652#4 23173652#5 -4411371 95795946#0 95795946#1 211145735#0 211145735#1 211145735#2 211145735#3 384731320#0 384731320#1 384731320#2 211145793 211145797 4318735#0 4318735#1 4318735#2 4318735#3 4318735#4 4318735#5 4318735#6 4318735#7 4318735#8 666093607 344560895#0 344560895#1 4336697#0 4336697#1 4314115#0 4314115#1 4314115#2 4314115#3 4314115#4 839467316 211145807#0 211145807#1 211145807#2 839467315 4314117 226984578 662387067#0 662387067#1 662387067#2 662387067#3 662387067#4 662387067#5 4352193#0 4352193#1 4352193#2 4352193#3 4352193#4 4442911 211802670 228524702 228524703 70276530#0 70276530#1 -4351958#3 -4351958#2 -4351958#1 -4351958#0 623680404#0 623680404#1 4351759#0 4351759#1 4351759#2 4351759#3 4351759#4 4351759#5 4351759#6 4442935#0 4442935#1 4442935#2 4442935#3 4442935#4 4442935#5 1095912321" />
    </vehicle>
    <vehicle id="460" depart="1039.00">
        <route edges="-866683333 -4351712 -1150693741 180794611#2 226985470 226985471#0 226985471#1 226985471#2 226985471#3 4314080 4314050#0 4314050#1 4314050#2 4314109#0 4314109#1 4314109#2 4314109#3 4314109#4 839467314 4314118#0 4314118#1 839467317 4314112#0 4314112#1 4314112#2 344560901#0 344560901#1 344560901#2 4336699#0 4336699#1 666094771#0 666094771#1 4318736#0 4318736#1 4318736#2 4318736#3 4318736#4 4318736#5 4318736#6 4318736#7 24407721 24407724#0 24407724#1 -24407771 -25617170" />
    </vehicle>
    <vehicle id="461" depart="1040.00">
        <route edges="70272495#3 70272499#0 70272499#1 70272499#2 70272499#3 70272499#4 4314118#1 211145795 211145807#0 211145807#1 211145807#2 839467315 4314117 226984578 662387067#0 662387067#1 662387067#2 662387067#3 662387067#4 662387067#5 4352193#0 4352193#1 4352193#2 4352193#3 4352193#4 4442911 211802670 228524702 228524703 70276530#0 70276530#1 -4351958#3 -4351958#2 -4351958#1 -4351958#0 623680404#0 623680404#1 4351759#0 4351759#1 4351759#2 4351759#3 4351759#4 4351759#5 4351759#6 4442935#0 4442935#1 4442935#2 4442935#3 4442935#4 4442935#5 1095912321 35410352 25012929 211145803 4314029 267024775 -19798139#2 -19798139#1 -19798139#0 -4314026 -4313983 -33735489 -33734750 -1228871560#8 -1228871560#7 -1228871560#6 -1228871560#5 -1228871560#4 -1228871560#3 -1228871560#2 -1228871560#1 -1228871560#0 -20464508#3 -20464508#2 -20464508#1 -20464508#0 4442835" />
    </vehicle>
    <vehicle id="463" depart="1042.00">
        <route edges="4447931#0 4447931#1 4417245 4314112#1 4314112#2 344560901#0 344560901#1 344560901#2 4336699#0 4336699#1 666094771#0 666094771#1 4318736#0 4318736#1 4318736#2 4318736#3 4318736#4 4318736#5 4318736#6 4318736#7 4318736#8 4318736#9 4318736#10 211145799 211145789 211145796 224293184 384731321#0 384731321#1 4411369#0 4411369#1 4411369#2 4411369#3" />
    </vehicle>
    <vehicle id="464" depart="1042.00">
        <route edges="4351656 4341864#1 4341864#2 -4341865#1 -4341865#0 -4341861 -4341857#1 -4341857#0 95796694#0 95796694#1 95796694#2 591937203#0 591937203#1 591937203#2 4314133#0 4314133#1 -953106575#1 -953106575#0 1235184011#0 1235184011#1 211448545#0 211448545#1 211448545#2 -4314149#1 -4314149#0 1217358939 4321052 211145763 138117290 22923613#0" />
    </vehicle>
    <vehicle id="465" depart="1043.00">