<?xml version="1.0" encoding="UTF-8"?>

<!-- generated on 2024-05-19 23:35:29 by Eclipse SUMO netedit Version 1.18.0
-->

<routes xmlns:xsi="http://www.w3.org/2001/XMLSchema-instance" xsi:noNamespaceSchemaLocation="http://sumo.dlr.de/xsd/routes_file.xsd">
    <!-- Vehicles, persons and containers (sorted by depart) -->
    <vehicle id="0" depart="0.00">
        <route edges="1093310820 1093310822 68089236 -493382979#1 -493382979#0 -4337922#5 -4337922#4 -4337922#3 -4337922#2 -4337922#1 -4337922#0 4336637#0 4336637#1 262527074 262527072 262527077#0 262527077#1 262527077#2 262527127 24306673#0 24306673#1 24306673#2 24306673#3 24306673#4 24306673#5 24306673#6 24306673#7 24306673#8 24306673#9 24306673#10 24306673#11 24306673#12 24306673#13 24306673#14 24306673#15 211145770#0 211145770#1 211145770#2 211145770#3 211145770#4 4442947 70272498 4442945 -4442945 -70272498"/>
    </vehicle>
    <vehicle id="1" depart="1.00">
        <route edges="23173652#2 23173652#3 23173652#4 23173652#5 -4411371 95795946#0 95795946#1 211145735#0 211145735#1 211145735#2 211145735#3 384731320#0 384731320#1 384731320#2 211145793 211145797 4318735#0 4318735#1 4318735#2 4318735#3 4318735#4 4318735#5 4318735#6 4318735#7 4318735#8 666093607 344560895#0 344560895#1 4336697#0 4336697#1 4314115#0 4314115#1 4314115#2 4314115#3 4314115#4 839467316 211145807#0 211145807#1 211145807#2 839467315 4314117 226984578 662387067#0 662387067#1 662387067#2 662387067#3 662387067#4 662387067#5 4352193#0 4352193#1 4352193#2 4352193#3 4352193#4 4442911 211802670 228524702 228524703 70276530#0 70276530#1 -4351958#3 -4351958#2 -4351958#1 -4351958#0 623680404#0 623680404#1 4351759#0 4351759#1 4351759#2 4351759#3 4351759#4 4351759#5 4351759#6 4442935#0 4442935#1 4442935#2 4442935#3 4442935#4 4442935#5 1095912321 35410352 25012929 211145803 4314029 267024775 -19798139#2 -19798139#1"/>
    </vehicle>
    <vehicle id="2" depart="1.00">
        <route edges="-4351960 510253483 267024777 -24841523#3 -24841523#2 -24841523#1 -24841523#0 -1113336280 -493382979#1 -493382979#0 -4337922#5 -4337922#4 -4337922#3 -4337922#2 -4337922#1 -4337922#0 4336637#0 4336637#1 262527074 262527072 262527077#0 262527077#1 262527077#2 262527127 24306673#0 24306673#1 24306673#2 24306673#3 24306673#4 24306673#5 24306673#6 24306673#7 24306673#8 24306673#9 24306673#10 4336695 818297686 211145769#3 211145769#4 1001771590 40918215#0 40918215#1"/>
    </vehicle>
    <vehicle id="3" depart="2.00">
        <route edges="4341853#0 4341853#1 4295836#2 4295836#3 4295836#4 4295836#5 1150693726 226982499#3 226982499#4 226982499#5 226982499#6 226982499#7 226982500#0 226982500#1 226982500#2 226982500#3 4314109#0 4314109#1 4314109#2 4314109#3 4314109#4 839467314 4314118#0 4314118#1 839467317 4314112#0"/>
    </vehicle>
    <vehicle id="4" depart="3.00">
        <route edges="-24407771 24407771 24407773 24407755#1 24407755#2 4318735#3 4318735#4 4318735#5 4318735#6 4318735#7 4318735#8 666093607 344560895#0 344560895#1 4336697#0 4336697#1 4314115#0 4314115#1 4314115#2 4314115#3 4314115#4 839467316 211145807#0 211145807#1 211145807#2 839467315 4314117 226984578 662387067#0 662387067#1 662387067#2 662387067#3 662387067#4 662387067#5 4352193#0 4352193#1 4352193#2 4352193#3"/>
    </vehicle>
    <vehicle id="5" depart="6.00">
        <route edges="-70272499#3 -70272499#2 -70272499#1 -70272499#0 -4351684 -4417255#1 -4417255#0 4314112#1 4314112#2 344560901#0 344560901#1 344560901#2 4336699#0 4336699#1 666094771#0 666094771#1 4318736#0 4318736#1 4318736#2 4318736#3 4318736#4 4318736#5 4318736#6 4318736#7 4318736#8 4318736#9 4318736#10 211145799 211145789 211145796 224293184 384731321#0 384731321#1 4411369#0 4411369#1 4411369#2 4411369#3 4411369#4 4411369#5 4411369#6 4411369#7 -4411371 95795946#0 95795946#1 24407618#0 24407618#1 -132301406#1 -132301406#0 132301406#0 132301406#1"/>
    </vehicle>
    <vehicle id="6" depart="6.00">
        <route edges="-73064427 73064427 35411025#1 35411026#0 35411026#1 -35410944 -510253470 35411052#0 35411052#1 35411052#2 35411056 65017498 262527130#0 262527130#1 262527130#2 4336693 262527120 262527127 24306673#0 24306673#1 24306673#2 24306673#3 24306673#4 24306673#5 24306673#6 24306673#7 24306673#8 24306673#9 24306673#10 24306673#11 24306673#12 24306673#13 24306673#14 24306673#15 211145770#0 211145770#1 211145770#2 211145770#3 211145770#4 211145770#5 584214657#0 584214657#1 584214657#2 591937204#0 591937204#1 591937204#2 953108927#0 953108927#1 953104639#0 953104639#1 4314133#0 4314133#1 -953106575#1 -953106575#0 1235184011#0 1235184011#1 211448545#0 211448545#1 211448545#2 -4314149#1 -4314149#0 -1060287927 -19998554#1 -19998554#0 8052420#0 8052420#1 24700612#0 24700612#1 -24700612#1"/>
    </vehicle>
    <vehicle id="8" depart="14.00">
        <route edges="-22911548#7 -22911548#6 -22911548#5 -22911548#4 -22911548#3 -22911548#2 -22911548#1 -22911548#0 -22911547 22911547 22911548#0 22911548#1 22911548#2 22911548#3 22911548#4 22911548#5 22911548#6 22911548#7 211145769#10 262378279 262378278#0 262378278#1 24306669 262527125 4336645 262527120 262527127 24306673#0 24306673#1 24306673#2 24306673#3 24306673#4 27286074#0 27286074#1 -27286074#1"/>
    </vehicle>
    <vehicle id="9" depart="15.00">
        <route edges="226984578 662387067#0 226982517 4314109#3 4314109#4 839467314 4314118#0 4314118#1 839467317 4314112#0 4314112#1 4314112#2 344560901#0 344560901#1 344560901#2 211145770#0 211145770#1 211145770#2 211145770#3 211145770#4 211145770#5 584214657#0 584214657#1 584214657#2 591937204#0 591937204#1 591937204#2 953108927#0 953108927#1 937258443#0 937258443#1 4295899#0 4295899#1 4295899#2 4295899#3 -4341857#1 -4341857#0 95796694#0 95796694#1"/>
    </vehicle>
    <vehicle id="11" depart="16.00">
        <route edges="24306673#2 24306673#3 24306673#4 24306673#5 24306673#6 24306673#7 24306673#8 24306673#9 24306673#10 4336695 818297686 211145769#3 211145769#4 211145769#5 211145769#6 211145769#7 211145769#8 211145769#9 211145769#10 262378279 262378278#0 262378278#1 24306669 262527125 4336645 4336636#0 4336636#1 4336636#2 4336636#3 262527075#0 262527075#1 4337922#0 4337922#1 4337922#2 4337922#3 -10791108#3 -10791108#2 -10791108#1 -527002699#0 22922143#5"/>
    </vehicle>
    <vehicle id="12" depart="20.00">
        <route edges="19798139#1 19798139#2 4314028 35410345 211145801 25012929 1228871559#0 70002697#0 70002697#1 70002697#2 228530562#0 228530562#1 228530562#2 228530560#3 228530560#4 35410683#0 35410683#1 35410704#0 35410704#1 267024772#0 267024772#1 267024772#2 228528611 228527262 4352215#0 4352215#1 228524704 180794611#0 180794611#1 180794611#2 226985470 226985471#0 226985471#1 226985471#2 226985471#3 4314080 4314050#0 4314050#1 4314050#2 4314109#0 4314109#1 4314109#2 4314109#3 4314109#4 839467314 4314118#0 4314118#1 839467317 4314112#0 4314112#1 4314112#2 344560901#0 344560901#1 344560901#2 4336699#0 4336699#1 666094771#0 666094771#1 4318736#0 4318736#1 4318736#2 4318736#3 4318736#4 4318736#5 4318736#6 4318736#7 4318736#8 4318736#9 4318736#10 211145799 211145789 211145796 224293184 384731321#0 384731321#1 4411369#0 4411369#1 4411369#2 4411369#3 4411369#4 4411369#5 4411369#6 4411369#7 -23173652#5 -23173652#4 -23173652#3 -23173652#2 -23173652#1 -23173652#0 -19801117#1 -19801117#0 -785353662#1 -785353662#0 -35412963#2 -35412963#1 -35412963#0 -128813905#7 -128813905#6 -128813905#5 -128813905#4 -128813905#3 -128813905#2 -128813905#1 -132301385#1 -132301385#0"/>
    </vehicle>
    <vehicle id="14" depart="21.00">
        <route edges="262527074 262527072 262527077#0 262527077#1 262527077#2 4336644 262527125 4336645 4336636#0 4336636#1 4336636#2 4336636#3 262527075#0 262527075#1 4337922#0 4337922#1 4337922#2 4337922#3 4337922#4 4337922#5 493382979#0 493382979#1 4336633#0 4336633#1 276159023#0 276159023#1 276159023#2 276159016 276159018 8103661#0 8103661#1 8103657#0 -23189053#1"/>
    </vehicle>
    <vehicle id="15" depart="21.00">
        <route edges="24700612#1 -24700612#1 -24700612#0 -8052420#1 -8052420#0 19998554#0 19998554#1 1060287927 4314149#0 4314149#1 -211448545#2 -211448545#1 -211448545#0 -1235184011#1 -1235184011#0 953106575#0 953106575#1 953104640#0 953104640#1 4336694#0 4336694#1 4336694#2 591937201 953108926 591937202 584214658#0 584214658#1 584214658#2 584214658#3 584214658#4 584214658#5 584214658#6 584214658#7 211145769#0 211145769#1 211145769#2 211145769#3 211145769#4 211145769#5 211145769#6 211145769#7 211145769#8 211145769#9 211145769#10 262378279 4336647#0 4336647#1 4336647#2 4336643#3 4336643#4 262527137 476146875 262527157 4310994 4310992 854958308 854958305 4310990 145530133 262527133 262527151#0 262527151#1 262527151#2 262527151#3 86892435 19741390 86892441 61917844#0 61917844#1 262527144 262527159"/>
    </vehicle>
    <vehicle id="18" depart="25.00">
        <route edges="-8103656 -8103657#1 -8103657#0 -8103661#1 -8103661#0 -276159018 -276159016 -276159023#2 -276159023#1 -276159023#0 -4336633#1 -4336633#0 -493382979#1 -493382979#0 -4337922#5 -4337922#4 -4337922#3 -4337922#2 -4337922#1 -4337922#0 4336637#0 4336637#1 262527074 262527072 262527077#0 262527077#1 262527077#2 4336644 4336643#0 4336643#1 4336643#2 4336643#3 4336643#4 262527137 476146875 262527157 4310994 4310992 854958308 854958305 4310990 145530133 262527133 262527151#0 262527151#1 262527151#2 262527151#3 86892435 19741390 86892441 61917844#0 61917844#1 262527144 262527159 4310989 4310991"/>
    </vehicle>
    <vehicle id="21" depart="31.00">
        <route edges="95796694#2 591937203#0 591937203#1 591937203#2 591937203#3 4336694#0 4336694#1 4336694#2 591937201 953108926 591937202 584214658#0 584214658#1 584214658#2 584214658#3 584214658#4 584214658#5 584214658#6 584214658#7 4336697#0 4336697#1 4314115#0 4314115#1 4314115#2 4314115#3 4314115#4 839467316 211145807#0 211145807#1 211145807#2 839467315 4314117 226984578 662387067#0 662387067#1 662387067#2 662387067#3 662387067#4 662387067#5 4314052#0 4314052#1 4314052#2 4340805#0 4340805#1 4340805#2 4340805#3 4340805#4 668880993#0 668880993#1 668880993#2 667942961#0 667942961#1 667942961#2 211145733 667940100 1116496225 1116496226#0 4351733#0"/>
    </vehicle>
    <vehicle id="22" depart="32.00">
        <route edges="226982500#0 226982500#1 226982500#2 226982500#3 4314109#0 4314109#1 4314109#2 4314109#3 4314109#4 839467314 4314118#0 4314118#1 839467317 4314112#0 4314112#1 4314112#2 344560901#0 344560901#1 344560901#2 211145770#0 211145770#1 211145770#2 211145770#3 211145770#4 211145770#5 584214657#0 584214657#1 584214657#2 591937204#0 591937204#1 591937204#2 953108927#0 953108927#1 953104639#0 953104639#1 4314133#0 4314133#1 -953106575#1 -953106575#0 1235184011#0 1235184011#1 211448545#0 211448545#1 211448545#2 -4314149#1 -4314149#0 4353910#0 4353910#1 4353910#2 4353910#3 4353910#4 4353910#5 943052440#0 943052440#1 943052440#2"/>
    </vehicle>
    <vehicle id="23" depart="35.00">
        <route edges="33882016#1 33882016#2 26317801#0 26317801#1 26317801#2 956580575 -956580576 -27301119 24311457#0 24311457#1 24311457#2 27286581 24311497#2 -24311527 24311527"/>
    </vehicle>
    <vehicle id="24" depart="36.00">
        <route edges="-4341864#0 -1150695355 228523585#1 228523585#2 228523585#3 226982499#0 226982499#1 226982499#2 226982499#3 226982499#4 226982499#5 226982499#6 226982499#7 226982500#0 226982500#1 226982500#2 226982500#3 4314082 4352193#0 4352193#1 4352193#2 4352193#3 4352193#4 4442911 211802670 228524702 228524703 70276530#0 70276530#1 4351954 267024771 228528609#0 228528609#1 228528609#2 228528609#3 267024773#0 267024773#1 267024773#2 228529698 1202017343 228530561#0 228530561#1 808318543 70287708 81399573#0 81399573#1 211802724#0 211802724#1 1201999929 -866965845#2 -866965845#1 -866965845#0 -276435240 -276435238 -276435239 -81399572#3 -81399572#2 -81399572#1 -81399572#0 81399574 276480171"/>
    </vehicle>
    <vehicle id="25" depart="37.00">
        <route edges="5116247 711985570 23173652#0 23173652#1 23173652#2 23173652#3 23173652#4 23173652#5 -4411371 95795946#0 95795946#1 211145735#0 211145735#1 211145735#2 211145735#3 384731320#0 384731320#1 384731320#2 211145793 211145797 4318735#0 4318735#1 4318735#2 4318735#3 4318735#4 4318735#5 4318735#6 4318735#7 4318735#8 666093607 344560895#0 344560895#1 211145769#0 211145769#1 211145769#2 211145769#3 211145769#4 211145769#5 211145769#6 211145769#7 211145769#8 211145769#9 211145769#10 262378279 262378278#0 262378278#1 24306669 262527125 262527123 189407444#0 189407444#1 189407444#2 -510253482 -35411080#3 10057424#2 -22923614 -22911575 -35411088 -8393151#1"/>
    </vehicle>
    <vehicle id="26" depart="40.00">
        <route edges="24311527 -24311497#2 -27286581 24311457#3 -8384193 4314033#1 4314033#2 4314033#3 4447953 1133065908 228530560#1 228530560#2 228530560#3 228530560#4 35410683#0 35410683#1 35410704#0 35410704#1 267024772#0 267024772#1 267024772#2 228528611 228527262 4352215#0 4352215#1 228524704 180794611#0 180794611#1 180794611#2 226985470 226985471#0 226985471#1 226985471#2 226985471#3 4314080 4314050#0 4314050#1 4314050#2 4314109#0 4314109#1 4314109#2 4314109#3 4314109#4 839467314 4314118#0 4314118#1 839467317 4314112#0 4314112#1 4314112#2 344560901#0 344560901#1 344560901#2 211145770#0 211145770#1 211145770#2 211145770#3 211145770#4 211145770#5 584214657#0 584214657#1 584214657#2 591937204#0 591937204#1 591937204#2 953108927#0 953108927#1 937258443#0 937258443#1 4295899#0 4295899#1 4295899#2 4295899#3 -4341857#1 -4341857#0 95796694#0 95796694#1 95796694#2"/>
    </vehicle>
    <vehicle id="27" depart="40.00">
        <route edges="-507005771#2 -507005771#1 -507005771#0 507005771#0 507005771#1 507005771#2 507005771#3 507005771#4 4340778#0 4340778#1 4340806#0 4340806#1 4340806#2 4340806#3 4340806#4 4340806#5 211145720 668847093#0 668847093#1 668849026 668849024 668849025#0 668849025#1 668851144 211802686#0 211802686#1 211802686#2 211802686#3 211802686#4 4314050#0 4314050#1 4314050#2 4314109#0 4314109#1 4314109#2 4314109#3 4314109#4 839467314 4314118#0 4314118#1 839467317 4314112#0 4314112#1 4314112#2 344560901#0 344560901#1 344560901#2 4336699#0 4336699#1 584214658#7 211145769#0 211145769#1 211145769#2 211145769#3 211145769#4 211145769#5 211145769#6 211145769#7 211145769#8 211145769#9 211145769#10 262378279 262378278#0 262378278#1 24306669 262527125 262527123 189407444#0 189407444#1 189407444#2 35411066 35411073#0 -985594163 -10665896#4 -10665896#3 -10665896#2 10666168"/>
    </vehicle>
    <vehicle id="29" depart="43.00">
        <route edges="-26956492#1 26956492#1 26956492#2 26956502 385866851 24306673#9 24306673#10 4336695 818297686 211145769#3 211145769#4 211145769#5 211145769#6 211145769#7 211145769#8 211145769#9 211145769#10 262378279 4336647#0 4336647#1 4336647#2 4336643#3 4336643#4 262527137 476146875 4311000 262527175"/>
    </vehicle>
    <vehicle id="30" depart="45.00">
        <route edges="23173652#4 23173652#5 -4411371 95795946#0 95795946#1 211145735#0 211145735#1 211145735#2 211145735#3 384731320#0 384731320#1 384731320#2 211145793 211145797 4318735#0 4318735#1 4318735#2 4318735#3 4318735#4 4318735#5 4318735#6 4318735#7 4318735#8 666093607 344560895#0 344560895#1 4336697#0 4336697#1 4314115#0 4314115#1 4314115#2 4314115#3 4314115#4 839467316 211145807#0 211145807#1 211145807#2 839467315 4314117 226984578 662387067#0 662387067#1 662387067#2 662387067#3 662387067#4 662387067#5 4352193#0 4352193#1 4352193#2 4352193#3 4352193#4 4442911 211802670 228524702 228524703 70276530#0 70276530#1 -4351958#3 -4351958#2 -4351958#1 -4351958#0 623680404#0 623680404#1 4351759#0 4351759#1 4351759#2 4351759#3 4351759#4 4351759#5 4351759#6 4442935#0 4442935#1 4442935#2 4442935#3 4442935#4 4442935#5 1095912321"/>
    </vehicle>
    <vehicle id="33" depart="47.00">
        <route edges="17429153#3 17427837#0 17427837#1 208288868#1 208288868#2 208288868#3 1057717252 866980812 95795946#0 95795946#1 211145735#0 211145735#1 211145735#2 211145735#3 384731320#0 384731320#1 384731320#2 211145793 211145797 4318735#0 4318735#1 4318735#2 4318735#3 4318735#4 4318735#5 4318735#6 4318735#7 4318735#8 666093607 344560895#0 344560895#1 4336697#0 4336697#1 4314115#0 4314115#1 4314115#2 4314115#3 4314115#4 839467316 211145807#0 211145807#1 211145807#2 839467315 4314117 226984578 662387067#0 662387067#1 662387067#2 662387067#3 662387067#4 662387067#5 4352193#0 4352193#1 4352193#2 4352193#3 4352193#4 4442911 211802670 228524702 228524703 70276530#0 70276530#1 -4351958#3 -4351958#2 -4351958#1 -4351958#0 623680404#0 623680404#1 4351759#0 4351759#1 4351759#2 4351759#3 4351759#4 4351759#5 4351759#6 4442935#0 4442935#1 4442935#2 4442935#3 4442935#4 4442935#5 1095912321 35410352 25012929 211145803 4314029 267024775 -19798139#2 -19798139#1 -19798139#0 -4314026 -4313983 -33735489 -33734750 -1228871560#8 -1228871560#7 -1228871560#6 -1228871560#5 -1228871560#4 -1228871560#3 -1228871560#2 -1228871560#1 -1228871560#0 -20464508#3 -20464508#2 -20464508#1 4316968#0 4316968#1 4316968#2 4316968#3 -4316966 28390410#1 -787364830 -513872482 -22947407 -787364829 787364829 22947407 513872482"/>
    </vehicle>
    <vehicle id="36" depart="52.00">
        <route edges="4447931#0 4447931#1 4417245 4314112#1 4314112#2 344560901#0 344560901#1 344560901#2 4336699#0 4336699#1 666094771#0 666094771#1 4318736#0 4318736#1 4318736#2 4318736#3 4318736#4 4318736#5 4318736#6 4318736#7 4318736#8 4318736#9 4318736#10 211145799 211145789 211145796 224293184 384731321#0 384731321#1 4411369#0 4411369#1 4411369#2 4411369#3"/>
    </vehicle>
    <vehicle id="38" depart="55.00">
        <route edges="8514913 267024774#0 267024774#1 267024774#2 23188822#0 23188822#1 1093310820 1093310822 68089236 1113336280 24841523#0 24841523#1 24841523#2 24841523#3 35410844#0 35410844#1 35410844#2 35410844#3 -4351958#3 -4351958#2 -4351958#1 -4351958#0 4352215#0 4352215#1 228524704 180794611#0 180794611#1 180794611#2 226985470 226985471#0 226985471#1 226985471#2 226985471#3 4314080 4314076#0 4314076#1 4314076#2 4314076#3 4314076#4 1150693728 4340830#0 4340830#1 4340830#2 4340830#3 4340830#4 4340830#5 -4340830#5 -4340830#4"/>
    </vehicle>
    <vehicle id="40" depart="57.00">
        <route edges="68089236 -493382979#1 -493382979#0 -4337922#5 -4337922#4 -4337922#3 -4337922#2 -4337922#1 -4337922#0 4336637#0 4336637#1 262527074 262527072 262527077#0 262527077#1 262527077#2 4336644 4336643#0 4336643#1 4336643#2 4336643#3 4336643#4 262527137 476146875 262527157 4310994 4310992 854958308 854958305 4310990 145530133 262527133 262527151#0 262527151#1 262527151#2 262527151#3 86892435 19741390 86892441 61917844#0 61917844#1 262527144 262527159 4310989 4310991 854958306 854958307 4310993 145530129 262527150"/>
    </vehicle>
    <vehicle id="43" depart="61.00">
        <route edges="128813905#5 128813905#6 128813905#7 35412963#0 35412963#1 35412963#2 785353662#0 785353662#1 19801117#0 19801117#1 23173652#0 23173652#1 23173652#2 23173652#3 23173652#4 23173652#5 -4411371 95795946#0 95795946#1 211145735#0 211145735#1 211145735#2 211145735#3 384731320#0 384731320#1 384731320#2 211145793 211145797 4318735#0 4318735#1 4318735#2 4318735#3 4318735#4 4318735#5 4318735#6 4318735#7 4318735#8 666093607 344560895#0 344560895#1 4336697#0 4336697#1 4314115#0 4314115#1 4314115#2 4314115#3 4314115#4 839467316 211145807#0 211145807#1 211145807#2 839467315 4314117 4351678 4351677#0 4351677#1 4351677#2 4351679#0 4351679#1 4351680 1150693735 226982499#7 226982500#0"/>
    </vehicle>
    <vehicle id="45" depart="65.00">
        <route edges="-8384195#0 4314033#2 4314033#3 4447953 1133065908 228530560#1 228530560#2 4314035#0 4314035#1 4314035#2 4314035#3 228529698 1202017343 228530561#0 228530561#1 808318543 70287708 1133065902#0 1133065902#1 81399581#0 81399581#1 81399581#2 81399581#3 81399581#4 4745695#0 4745695#1 4745695#2 4745695#3 23936886#0 23936886#1 23936886#2 23936886#3 23936886#4"/>
    </vehicle>
    <vehicle id="46" depart="65.00">
        <route edges="22923613#0 22923613#1 22923613#2 22923613#3 22923613#4 22923613#5 22923613#6 22923613#7 22923613#8 22923613#9 -785353662#1 -785353662#0 -35412963#2 -35412963#1 -35412963#0 35412963#0"/>
    </vehicle>
    <vehicle id="47" depart="66.00">
        <route edges="4337948"/>
    </vehicle>
    <vehicle id="48" depart="66.00">
        <route edges="23189053#1 23189053#2 23189053#3 23189053#4 23189053#5 1133065901 276159022#0 276159022#1 866965848 81399573#0 81399573#1 211802724#0 211802724#1 1202017344 808318544#0 808318544#1 1201999931 228530560#0 228530560#1 228530560#2 228530560#3 228530560#4 35410683#0 35410683#1 35410704#0 35410704#1 267024772#0 267024772#1 267024772#2 228528611 228527262 4352215#0 4352215#1 228524704 180794611#0 180794611#1 180794611#2 226985470 226985471#0 226985471#1 226985471#2 226985471#3 4340805#0 4340805#1 4340805#2 4340805#3 4340805#4 668880993#0 668880993#1 668880993#2 667942961#0 667942961#1 667942961#2 211145733 4340810#0 4340810#1 4340810#2 211145721 -4340806#5 -4340806#4 -4340806#3 -4340806#2 -4340806#1"/>
    </vehicle>
    <vehicle id="49" depart="67.00">
        <route edges="-866683333 -4351712 -1150693741 180794611#2 226985470 226985471#0 226985471#1 226985471#2 226985471#3 4314080 4314050#0 4314050#1 4314050#2 4314082 4352193#0 4352193#1 4352193#2 4352193#3"/>
    </vehicle>
    <vehicle id="50" depart="72.00">
        <route edges="128813905#2 128813905#3 128813905#4 128813905#5 128813905#6 128813905#7 35412963#0 35412963#1 35412963#2 785353662#0 785353662#1 19801117#0 19801117#1 23173652#0 23173652#1 23173652#2 23173652#3 23173652#4 23173652#5 -4411371 95795946#0 95795946#1 211145735#0 211145735#1 211145735#2 211145735#3 384731320#0 384731320#1 384731320#2 211145793 211145797 4318735#0 4318735#1 4318735#2 4318735#3 4318735#4 4318735#5 4318735#6 4318735#7 4318735#8 666093607 344560895#0 344560895#1 211145769#0 211145769#1 211145769#2 211145769#3 211145769#4 211145769#5 211145769#6 211145769#7 211145769#8 211145769#9 211145769#10 262378279 262378278#0 262378278#1 24306669 262527125 4336645 4336636#0 4336636#1 4336636#2 4336636#3 262527075#0 262527075#1 4337922#0 4337922#1 4337922#2 4337922#3 -10791108#3 -10791108#2 10791108#2"/>
    </vehicle>
    <vehicle id="51" depart="73.00">
        <route edges="22922143#6 22922143#7 -22922143#7 -22922143#6 -10791034#1 -10791034#0 -4337922#4 -4337922#3 -4337922#2 -4337922#1 -4337922#0 4336637#0 4336637#1 262527074 262527072 262527077#0 262527077#1 262527077#2 4336644 4336643#0 4336643#1 4336643#2 4336643#3 4336643#4 262527137 476146875 262527157 4310994 4310992 854958308 854958305 4310990 145530133 262527133 262527151#0"/>
    </vehicle>
    <vehicle id="53" depart="77.00">
        <route edges="208288871#0 208288871#1 208288871#2 954040506#0 954040506#1 954040506#2 4411373#0 4411373#1 4411373#2 4411373#3 19741390 86892441 61917844#0 61917844#1 262527144 262527159 4310989 4310991 854958306 854958307 4310993 145530129 262527150 262527162#0 262527162#1 262527162#2 262527135 262527140 262527154#0 262527154#1 262527154#2 4336645 4336636#0 4336636#1 4336636#2 4336636#3 262527075#0 262527075#1 4337922#0 4337922#1 4337922#2 4337922#3 4337922#4 4337922#5 493382979#0 493382979#1 4336633#0 4336633#1 276159023#0 276159023#1 276159023#2 276159016 276159018 276159015 1133065900 276159021 4336630 276159020 276159022#0 276159022#1 866965848 81399573#0 81399573#1 211802724#0 211802724#1 1202017344 808318544#0 808318544#1 1201999931 1133065906 4447952 -4314033#3 -4314033#2 -4314033#1 -4314033#0 -1228871559#1 -1228871559#0 211145803 4314029 267024775 -19798139#2 -19798139#1 -19798139#0 -4314026 -4313983 -33735489 -33734750 -1228871560#8 -1228871560#7 -1228871560#6 -1228871560#5 -1228871560#4 -1228871560#3 -1228871560#2 -1228871560#1 -1228871560#0 -20464508#3 -20464508#2 -20464508#1 -20464508#0 -4313971#1 -4313971#0 4313971#0 4313971#1"/>
    </vehicle>
    <vehicle id="55" depart="78.00">
        <route edges="41421260#1 41421260#2 41421260#3 4447953 1133065908 228530560#1 228530560#2 4314035#0 4314035#1 4314035#2 4314035#3 228529698 1202017343 73063580#0 73063580#1 73063580#2 73063580#3 4336631#1 276159017 -276159021 -1133065900 -276159015 -276159018 -276159016 -276159023#2 -276159023#1 -276159023#0 -4336633#1 -4336633#0 -68089236 -1093310822 -1093310820 -23188822#1 -23188822#0 -267024774#2 -267024774#1 -267024774#0 -296204380#3 -296204380#2"/>
    </vehicle>
    <vehicle id="56" depart="79.00">
        <route edges="226982500#0 226982500#1 226982500#2 226982500#3 4314109#0 4314109#1 4314109#2 4314109#3 4314109#4 839467314 4314118#0 4314118#1 839467317 4314112#0 4314112#1 4314112#2 344560901#0 344560901#1 344560901#2 4336699#0 4336699#1 666094771#0 666094771#1 4318736#0 4318736#1 4318736#2 4318736#3 4318736#4 4318736#5 4318736#6 4318736#7 4318736#8 4318736#9 4318736#10 211145799 211145789 211145796 224293184 384731321#0 384731321#1 4411369#0 4411369#1 4411369#2 4411369#3 4411369#4 4411369#5 4411369#6 4411369#7 -23173652#5 -23173652#4 -23173652#3 -23173652#2 -5116250#1 -5116250#0 5116245#3 -5116248"/>
    </vehicle>
    <vehicle id="57" depart="80.00">
        <route edges="-128813905#3 -128813905#2 -128813905#1 128813905#1 128813905#2 128813905#3 128813905#4 128813905#5 128813905#6 128813905#7 35412963#0 35412963#1 35412963#2 785353662#0 785353662#1 19801117#0 19801117#1 23173652#0 23173652#1 23173652#2 23173652#3 23173652#4 23173652#5 -4411371 95795946#0 95795946#1 211145735#0 211145735#1 211145735#2 211145735#3 384731320#0 384731320#1 384731320#2 211145793 211145797 4318735#0 4318735#1 4318735#2 4318735#3 4318735#4 4318735#5 4318735#6 4318735#7 4318735#8 666093607 344560895#0 344560895#1 211145769#0 211145769#1 211145769#2 211145769#3 211145769#4 211145769#5 211145769#6 211145769#7 211145769#8 211145769#9 211145769#10 262378279 4336647#0 4336647#1 4336647#2 4336643#3 4336643#4 262527137 476146875 262527157 4310994 4310992 854958308 854958305 4310990 145530133 262527133 262527151#0 262527151#1 262527151#2 262527151#3 86892435 19741390 86892441 61917844#0 61917844#1 262527144 262527159 4310989 4310991 854958306 854958307 4310993 145530129 262527150"/>
    </vehicle>
    <vehicle id="58" depart="82.00">
        <route edges="-40925899 40925899 -40925822#1 -40925822#0 17425035#0 17425035#1 17425035#2 40925766 867455541 24407567 15887140 262527117#0 262527117#1 262527117#2 262527115 4411374 19741389#0 19741389#1 19741389#2 19741389#3 19741389#4 189407440 211145734#0 211145734#1 211145734#2 208288868#0 17427733 -40918901#1 -40918901#0 -208288900#2 -208288900#1 -714488207#0 27470037 -27470037"/>
    </vehicle>
    <vehicle id="59" depart="84.00">
        <route edges="4351671#1 -963237717#0 -963237716#2 -963237716#1 -963237716#0 4314121 591937204#1 591937204#2 953108927#0 953108927#1 953104639#0 953104639#1 591937203#3 4336694#0 4336694#1 4336694#2 591937201 953108926 591937202 584214658#0 584214658#1 584214658#2 584214658#3 584214658#4 584214658#5 584214658#6 584214658#7 211145769#0 211145769#1 211145769#2 211145769#3 211145769#4 211145769#5 211145769#6 211145769#7 211145769#8 211145769#9 211145769#10 262378279 262378278#0 262378278#1 24306669 262527125 4336645 4336636#0 4336636#1 4336636#2 4336636#3 262527075#0 -35411008#2 -35411008#1 -35411008#0 35411026#1 35411025#0 -73064427 8514913"/>
    </vehicle>
    <vehicle id="65" depart="90.00">
        <route edges="476146875 262527157 4310994 4310992 854958308 854958305 4310990 145530133 262527133 262527151#0 262527151#1 262527151#2 262527151#3 86892435 19741390 86892441 61917844#0 61917844#1 262527144 262527159 4310989 4310991 854958306 854958307 4310993 145530129 262527150 262527162#0 262527162#1 262527162#2 262527135 262527140 262527154#0 262527154#1 262527154#2 4336645 4336636#0 4336636#1 4336636#2 4336636#3 262527075#0 262527075#1 4337922#0 4337922#1 4337922#2 4337922#3 4337922#4 4337922#5 493382979#0 493382979#1 4336633#0 4336633#1 276159023#0 276159023#1 276159023#2 276159016 276159018 276159015 1133065900 276159021 4336630 276159020 276159022#0 276159022#1 866965848 81399573#0 81399573#1 211802724#0 211802724#1 1202017344 808318544#0 808318544#1 1201999931 1133065906 4447952 -4314033#3 -4314033#2 -4314033#1 8384193 -8384193"/>
    </vehicle>
    <vehicle id="66" depart="91.00">
        <route edges="4353910#2 4353910#3 4353910#4 4353910#5 943052440#0 943052440#1 943052440#2 4341857#0 4341857#1 4341861 4341865#0 4341865#1 -4341864#2 -4341864#1 -4341864#0 -1150695355 228523585#1 228523585#2 228523585#3 226982499#0 226982499#1 226982499#2 226982499#3 226982499#4 226982499#5 226982499#6 226982499#7 226982500#0 226982500#1 226982500#2 226982500#3 4314082 4314052#0 4314052#1 4314052#2 4314080 4314076#0 4314076#1 4314076#2 -1150693737 -343589984#1 -343589984#0 -4341840"/>
    </vehicle>
    <vehicle id="67" depart="92.00">
        <route edges="8052420#1 24700612#0 24700612#1 -24700612#1 -24700612#0 -8052420#1 -8052420#0 4351639#0 4351643#1 4353908#0 4353908#1 4353908#2 4353908#3 4341856#0 4341856#1 4341857#0 4341857#1 4341861 4341865#0 4341865#1 -4341864#2 -4341864#1 -4341864#0 -1150695355 228523585#1 228523585#2 228523585#3 226982499#0 226982499#1 226982499#2 226982499#3 226982499#4 226982499#5 226982499#6 226982499#7 226982500#0 226982500#1 226982500#2 226982500#3 4314082 4352193#0 4352193#1 4352193#2 4352193#3 4352193#4 4442911 211802670 228524702 228524703 70276530#0 70276530#1 -4351958#3 -4351958#2 -4351958#1 -4351958#0 623680404#0 623680404#1 4351759#0 4351759#1 4351759#2 4351759#3 4351759#4 4351759#5 4351759#6 4442935#0 4442935#1 4442935#2 4442935#3 4442935#4 4442935#5 1095912321 35410352 25012929 211145803 4314029 267024775 -19798139#2 -19798139#1 -19798139#0 -866683332 -24311489#4 24311529#0 -24311493"/>
    </vehicle>
    <vehicle id="68" depart="94.00">
        <route edges="-64378203#1 -64378203#0 -4351750#2 -4351750#1 -4351750#0 -449919294 -449919292 -211145764#1 -211145764#0 -668848282#1 -668848282#0 211145765 4340810#0 4340810#1 4340810#2 24920632 668847093#0 668847093#1 668849026 668849024 668849025#0 668849025#1 668851144 211802686#0 211802686#1 211802686#2 211802686#3 211802686#4 4314076#0 4314076#1 4314076#2 4314076#3 4314076#4"/>